8
gauche
F  1.45516034 -0.54372472  0.1323784 
F -1.45537713 -0.54228241 -0.13662916
C  0.73583396  0.51969543 -0.2801387 
C -0.7356476   0.51835104  0.2824904 
H  0.7132823   0.55078565 -1.40087067
H  1.22953052  1.46667523  0.06348562
H -1.22908813  1.46755313 -0.05535496
H -0.71321574  0.54241994  1.40327685
